Circuit: * C:\Users\benja\Downloads\2024\TCII\TS6\simulación circuital red pasiva 2.asc

Number of points reduced from 100000 to 65535.
.OP point found by inspection.
Ignoring empty pin current: Ix(u1:1)
Ignoring empty pin current: Ix(u1:2)
Ignoring empty pin current: Ix(u2:1)
Ignoring empty pin current: Ix(u2:2)
Ignoring empty pin current: Ix(u3:1)
Ignoring empty pin current: Ix(u3:2)
Ignoring empty pin current: Ix(u1:1)
Ignoring empty pin current: Ix(u1:2)
Ignoring empty pin current: Ix(u2:1)
Ignoring empty pin current: Ix(u2:2)
Ignoring empty pin current: Ix(u3:1)
Ignoring empty pin current: Ix(u3:2)

Date: Mon Jun 24 18:18:07 2024
Total elapsed time: 0.280 seconds.

tnom = 27
temp = 27
method = trap
totiter = 0
traniter = 0
tranpoints = 0
accept = 0
rejected = 0
matrix size = 12
fillins = 4
solver = Normal
Avg thread counts: 12.0/0.0/0.0/1.0
Matrix Compiler1:      36 opcodes
Matrix Compiler2:      70 opcodes
