Circuit: * C:\Users\benja\Downloads\2024\TCII\TS12\ej1.asc

.OP point found by inspection.

Date: Wed Oct 30 15:16:11 2024
Total elapsed time: 0.053 seconds.

tnom = 27
temp = 27
method = trap
totiter = 0
traniter = 0
tranpoints = 0
accept = 0
rejected = 0
matrix size = 6
fillins = 1
solver = Normal
Avg thread counts: 12.0/0.0/0.0/1.2
Matrix Compiler1:      15 opcodes
Matrix Compiler2:      34 opcodes
