Circuit: * C:\Users\benja\Downloads\2024\TCII\TS10\ej2.asc

WARNING: Node N001 is floating.

.OP point found by inspection.

Date: Fri Oct 25 20:09:48 2024
Total elapsed time: 0.079 seconds.

tnom = 27
temp = 27
method = trap
totiter = 0
traniter = 0
tranpoints = 0
accept = 0
rejected = 0
matrix size = 7
fillins = 0
solver = Normal
Avg thread counts: 12.0/0.0/0.0/1.1
Matrix Compiler1:      18 opcodes
Matrix Compiler2:      40 opcodes
