Circuit: * C:\Users\benja\Downloads\2024\TCII\TS10\foster.asc

.OP point found by inspection.

Date: Fri Oct 25 19:44:04 2024
Total elapsed time: 0.067 seconds.

tnom = 27
temp = 27
method = trap
totiter = 0
traniter = 0
tranpoints = 0
accept = 0
rejected = 0
matrix size = 6
fillins = 0
solver = Normal
Avg thread counts: 12.0/0.0/0.0/1.1
Matrix Compiler1:      15 opcodes
Matrix Compiler2:      34 opcodes
