Circuit: * C:\Users\benja\Downloads\2024\TCII\TS11\ej1.asc

WARNING: Node N001 is floating.
WARNING: Node VO is floating.

WARNING: Less than two connections to node vo.  This node is used by l3.
.OP point found by inspection.

Date: Tue Oct 29 00:21:07 2024
Total elapsed time: 0.049 seconds.

tnom = 27
temp = 27
method = trap
totiter = 0
traniter = 0
tranpoints = 0
accept = 0
rejected = 0
matrix size = 8
fillins = 4
solver = Normal
Avg thread counts: 12.0/0.0/0.0/1.1
Matrix Compiler1:      29 opcodes
Matrix Compiler2:      50 opcodes
