Circuit: * C:\Users\benja\Downloads\2024\TCII\TS11\ej2.asc

.OP point found by inspection.

Date: Tue Oct 29 00:07:19 2024
Total elapsed time: 0.046 seconds.

tnom = 27
temp = 27
method = trap
totiter = 0
traniter = 0
tranpoints = 0
accept = 0
rejected = 0
matrix size = 10
fillins = 4
solver = Normal
Avg thread counts: 12.0/0.0/0.0/1.3
Matrix Compiler1:      27 opcodes
Matrix Compiler2:      58 opcodes
