Circuit: * C:\Users\benja\Downloads\2024\TCII\TS13\circuito_desnormalizado.asc

.OP point found by inspection.

Date: Wed Nov 20 12:24:37 2024
Total elapsed time: 0.068 seconds.

tnom = 27
temp = 27
method = trap
totiter = 0
traniter = 0
tranpoints = 0
accept = 0
rejected = 0
matrix size = 5
fillins = 0
solver = Normal
Avg thread counts: 12.0/0.0/0.0/1.1
Matrix Compiler1:      12 opcodes
Matrix Compiler2:      28 opcodes
