Circuit: * C:\Users\benja\Downloads\2024\TCII\TS1\Simulacion LTspice.asc

Direct Newton iteration for .op point succeeded.

Date: Thu May  2 11:52:22 2024
Total elapsed time: 0.101 seconds.

tnom = 27
temp = 27
method = trap
totiter = 3
traniter = 0
tranpoints = 0
accept = 0
rejected = 0
matrix size = 9
fillins = 1
solver = Normal
Avg thread counts: 12.0/0.0/12.0/1.1
Matrix Compiler1:      20 opcodes
Matrix Compiler2: 675 bytes object code size
