Circuit: * C:\Users\benja\Downloads\2024\TCII\TS7\simulacion circuital cuadripolo red.asc

.OP point found by inspection.

Date: Sun Sep  1 21:37:52 2024
Total elapsed time: 0.046 seconds.

tnom = 27
temp = 27
method = trap
totiter = 0
traniter = 0
tranpoints = 0
accept = 0
rejected = 0
matrix size = 4
fillins = 1
solver = Normal
Avg thread counts: 12.0/0.0/0.0/1.2
Matrix Compiler1:       9 opcodes
Matrix Compiler2:      22 opcodes
