Circuit: * C:\Users\benja\Downloads\2024\TCII\TS5\circuito simulación desnormalizado.asc

.OP point found by inspection.
Ignoring empty pin current: Ix(u1:1)
Ignoring empty pin current: Ix(u1:2)
Ignoring empty pin current: Ix(u1:1)
Ignoring empty pin current: Ix(u1:2)

Date: Tue May 28 12:14:06 2024
Total elapsed time: 0.056 seconds.

tnom = 27
temp = 27
method = trap
totiter = 0
traniter = 0
tranpoints = 0
accept = 0
rejected = 0
matrix size = 6
fillins = 1
solver = Normal
Avg thread counts: 12.0/0.0/0.0/1.2
Matrix Compiler1:      17 opcodes
Matrix Compiler2:      35 opcodes
