Circuit: * C:\Users\benja\Downloads\2024\TCII\TS5\Draft1.asc

.OP point found by inspection.
Ignoring empty pin current: Ix(u1:1)
Ignoring empty pin current: Ix(u1:2)
Ignoring empty pin current: Ix(u1:1)
Ignoring empty pin current: Ix(u1:2)

Date: Mon May 27 23:32:33 2024
Total elapsed time: 0.051 seconds.

tnom = 27
temp = 27
method = trap
totiter = 0
traniter = 0
tranpoints = 0
accept = 0
rejected = 0
matrix size = 6
fillins = 1
solver = Normal
Avg thread counts: 12.0/0.0/0.0/1.2
Matrix Compiler1:      17 opcodes
Matrix Compiler2:      35 opcodes
